matpower-plain/case33bw.m
function mpc = case33bw
%CASE33BW  Power flow data for 33 bus distribution system from Baran & Wu
%   Please see CASEFORMAT for details on the case file format.
%
%   Data from ...
%       M. E. Baran and F. F. Wu, "Network reconfiguration in distribution
%       systems for loss reduction and load balancing," in IEEE Transactions
%       on Power Delivery, vol. 4, no. 2, pp. 1401-1407, Apr 1989.
%       doi: 10.1109/61.25627
%       URL: https://doi.org/10.1109/61.25627
%
%   Plain-data copy of benchmark-grids/matpower/case33bw.m: the file's
%   MATLAB statements (below, as they were) are evaluated by
%   scripts/evaluate_matpower_code.py and the matrices hold the result.
%     Vbase = mpc.bus(1, BASE_KV) * 1e3;
%     Sbase = mpc.baseMVA * 1e6;
%     mpc.branch(:, [BR_R BR_X]) = mpc.branch(:, [BR_R BR_X]) / (Vbase^2 / Sbase);
%     mpc.bus(:, [PD, QD]) = mpc.bus(:, [PD, QD]) / 1e3;

%% MATPOWER Case Format : Version 2
mpc.version = '2';

mpc.baseMVA = 10;

mpc.bus = [
	1	3	0	0	0	0	1	1	0	12.66	1	1	1;
	2	1	0.1	0.06	0	0	1	1	0	12.66	1	1.1	0.9;
	3	1	0.09	0.04	0	0	1	1	0	12.66	1	1.1	0.9;
	4	1	0.12	0.08	0	0	1	1	0	12.66	1	1.1	0.9;
	5	1	0.06	0.03	0	0	1	1	0	12.66	1	1.1	0.9;
	6	1	0.06	0.02	0	0	1	1	0	12.66	1	1.1	0.9;
	7	1	0.2	0.1	0	0	1	1	0	12.66	1	1.1	0.9;
	8	1	0.2	0.1	0	0	1	1	0	12.66	1	1.1	0.9;
	9	1	0.06	0.02	0	0	1	1	0	12.66	1	1.1	0.9;
	10	1	0.06	0.02	0	0	1	1	0	12.66	1	1.1	0.9;
	11	1	0.045	0.03	0	0	1	1	0	12.66	1	1.1	0.9;
	12	1	0.06	0.035	0	0	1	1	0	12.66	1	1.1	0.9;
	13	1	0.06	0.035	0	0	1	1	0	12.66	1	1.1	0.9;
	14	1	0.12	0.08	0	0	1	1	0	12.66	1	1.1	0.9;
	15	1	0.06	0.01	0	0	1	1	0	12.66	1	1.1	0.9;
	16	1	0.06	0.02	0	0	1	1	0	12.66	1	1.1	0.9;
	17	1	0.06	0.02	0	0	1	1	0	12.66	1	1.1	0.9;
	18	1	0.09	0.04	0	0	1	1	0	12.66	1	1.1	0.9;
	19	1	0.09	0.04	0	0	1	1	0	12.66	1	1.1	0.9;
	20	1	0.09	0.04	0	0	1	1	0	12.66	1	1.1	0.9;
	21	1	0.09	0.04	0	0	1	1	0	12.66	1	1.1	0.9;
	22	1	0.09	0.04	0	0	1	1	0	12.66	1	1.1	0.9;
	23	1	0.09	0.05	0	0	1	1	0	12.66	1	1.1	0.9;
	24	1	0.42	0.2	0	0	1	1	0	12.66	1	1.1	0.9;
	25	1	0.42	0.2	0	0	1	1	0	12.66	1	1.1	0.9;
	26	1	0.06	0.025	0	0	1	1	0	12.66	1	1.1	0.9;
	27	1	0.06	0.025	0	0	1	1	0	12.66	1	1.1	0.9;
	28	1	0.06	0.02	0	0	1	1	0	12.66	1	1.1	0.9;
	29	1	0.12	0.07	0	0	1	1	0	12.66	1	1.1	0.9;
	30	1	0.2	0.6	0	0	1	1	0	12.66	1	1.1	0.9;
	31	1	0.15	0.07	0	0	1	1	0	12.66	1	1.1	0.9;
	32	1	0.21	0.1	0	0	1	1	0	12.66	1	1.1	0.9;
	33	1	0.06	0.04	0	0	1	1	0	12.66	1	1.1	0.9;
];

mpc.gen = [
	1	0	0	10	-10	1	100	1	10	0	0	0	0	0	0	0	0	0	0	0	0;
];

mpc.branch = [
	1	2	0.005752591161723931	0.002932448856844086	0	0	0	0	0	0	1	-360	360;
	2	3	0.03075951673242839	0.0156667639990117	0	0	0	0	0	0	1	-360	360;
	3	4	0.022835665566062455	0.011629967381185907	0	0	0	0	0	0	1	-360	360;
	4	5	0.023777792751984706	0.012110389853477385	0	0	0	0	0	0	1	-360	360;
	5	6	0.05109948114372992	0.044111517910399335	0	0	0	0	0	0	1	-360	360;
	6	7	0.011679881404281126	0.0386084968641515	0	0	0	0	0	0	1	-360	360;
	7	8	0.04438604503742304	0.014668483537107332	0	0	0	0	0	0	1	-360	360;
	8	9	0.0642643047350938	0.0461704713630771	0	0	0	0	0	0	1	-360	360;
	9	10	0.06513780013926013	0.0461704713630771	0	0	0	0	0	0	1	-360	360;
	10	11	0.012266371175649942	0.004055514376486502	0	0	0	0	0	0	1	-360	360;
	11	12	0.02335976280856225	0.00772419507398506	0	0	0	0	0	0	1	-360	360;
	12	13	0.09159223237972591	0.07206337084372169	0	0	0	0	0	0	1	-360	360;
	13	14	0.03379179363546291	0.04447963383072657	0	0	0	0	0	0	1	-360	360;
	14	15	0.03687398456159265	0.032818470185106155	0	0	0	0	0	0	1	-360	360;
	15	16	0.04656354429495194	0.03400392823361759	0	0	0	0	0	0	1	-360	360;
	16	17	0.08042396971217078	0.10737754218358878	0	0	0	0	0	0	1	-360	360;
	17	18	0.04567133113212491	0.03581331157081926	0	0	0	0	0	0	1	-360	360;
	2	19	0.01023237473451979	0.009764430768002116	0	0	0	0	0	0	1	-360	360;
	19	20	0.09385084192478456	0.08456683362907391	0	0	0	0	0	0	1	-360	360;
	20	21	0.02554974057186496	0.029848585810940652	0	0	0	0	0	0	1	-360	360;
	21	22	0.04423006371525048	0.05848051730893536	0	0	0	0	0	0	1	-360	360;
	3	23	0.028151509025703226	0.019235616650319826	0	0	0	0	0	0	1	-360	360;
	23	24	0.05602849092438275	0.044242542221024285	0	0	0	0	0	0	1	-360	360;
	24	25	0.055903705866644705	0.043743401990072095	0	0	0	0	0	0	1	-360	360;
	6	26	0.01266568336041169	0.00645138748505699	0	0	0	0	0	0	1	-360	360;
	26	27	0.017731956704576366	0.009028198927347643	0	0	0	0	0	0	1	-360	360;
	27	28	0.06607368807229547	0.05825590420500687	0	0	0	0	0	0	1	-360	360;
	28	29	0.05017607171646838	0.04371220572563759	0	0	0	0	0	0	1	-360	360;
	29	30	0.03166420840102922	0.016128468712642473	0	0	0	0	0	0	1	-360	360;
	30	31	0.06079528012997612	0.06008400530086925	0	0	0	0	0	0	1	-360	360;
	31	32	0.019372880213831673	0.022579856197699463	0	0	0	0	0	0	1	-360	360;
	32	33	0.02127585234433688	0.033080518806356055	0	0	0	0	0	0	1	-360	360;
	21	8	0.12478505773804621	0.12478505773804621	0	0	0	0	0	0	0	-360	360;
	9	15	0.12478505773804621	0.12478505773804621	0	0	0	0	0	0	0	-360	360;
	12	22	0.12478505773804621	0.12478505773804621	0	0	0	0	0	0	0	-360	360;
	18	33	0.031196264434511553	0.031196264434511553	0	0	0	0	0	0	0	-360	360;
	25	29	0.031196264434511553	0.031196264434511553	0	0	0	0	0	0	0	-360	360;
];

mpc.gencost = [
	2	0	0	3	0	20	0;
];
